<?xml version="1.0" encoding="UTF-8"?>
<!-- generated on 2022-12-08 19:04:35 by Eclipse SUMO netconvert Version 1.15.0
<configuration xmlns:xsi="http://www.w3.org/2001/XMLSchema-instance" xsi:noNamespaceSchemaLocation="http://sumo.dlr.de/xsd/netconvertConfiguration.xsd">

    <input>
        <node-files value="vanet.nod.xml"/>
        <edge-files value="vanet.edg.xml"/>
        <type-files value="vanet.type.xml"/>
    </input>

    <output>
        <output-file value="vanet.net.xml"/>
    </output>

</configuration>
-->
<net version="1.9" junctionCornerDetail="5" limitTurnSpeed="5.50" xmlns:xsi="http://www.w3.org/2001/XMLSchema-instance" xsi:noNamespaceSchemaLocation="http://sumo.dlr.de/xsd/net_file.xsd">

    <location netOffset="400.00,-100.00" convBoundary="0.00,0.00,800.00,200.00" origBoundary="-400.00,100.00,400.00,300.00" projParameter="!"/>

    <type id="2L10" priority="75" numLanes="2" speed="10.00"/>
    <type id="2L40" priority="75" numLanes="2" speed="40.00"/>

    <edge id=":n0_0" function="internal">
        <lane id=":n0_0_0" index="0" speed="9.10" length="25.26" shape="10.36,204.80 2.93,203.79 -1.21,200.75 -2.08,195.68 0.34,188.59"/>
        <lane id=":n0_0_1" index="1" speed="7.77" length="18.04" shape="10.36,201.60 5.05,200.88 2.09,198.71 1.48,195.09 3.20,190.02"/>
    </edge>
    <edge id=":n0_2" function="internal">
        <lane id=":n0_2_0" index="0" speed="3.95" length="3.61" shape="8.92,192.88 8.58,193.90 8.70,194.62 9.30,195.06 10.36,195.20"/>
        <lane id=":n0_2_1" index="1" speed="6.16" length="10.83" shape="6.06,191.45 5.03,194.49 5.40,196.66 7.17,197.97 10.36,198.40"/>
    </edge>
    <edge id=":n1_0" function="internal">
        <lane id=":n1_0_0" index="0" speed="10.00" length="22.31" shape="207.96,204.80 185.64,204.80"/>
        <lane id=":n1_0_1" index="1" speed="10.00" length="22.31" shape="207.96,201.60 185.64,201.60"/>
    </edge>
    <edge id=":n1_2" function="internal">
        <lane id=":n1_2_0" index="0" speed="10.00" length="3.70" shape="207.96,201.60 204.33,200.88"/>
    </edge>
    <edge id=":n1_3" function="internal">
        <lane id=":n1_3_0" index="0" speed="3.65" length="1.44" shape="207.96,201.60 206.76,200.80"/>
    </edge>
    <edge id=":n1_12" function="internal">
        <lane id=":n1_12_0" index="0" speed="10.00" length="18.28" shape="204.33,200.88 203.61,200.74 199.53,198.17 195.71,193.88 192.15,187.88"/>
    </edge>
    <edge id=":n1_13" function="internal">
        <lane id=":n1_13_0" index="0" speed="3.65" length="3.23" shape="206.76,200.80 206.36,200.00 206.76,199.20 207.96,198.40"/>
    </edge>
    <edge id=":n1_4" function="internal">
        <lane id=":n1_4_0" index="0" speed="10.08" length="14.93" shape="197.87,185.01 200.41,189.47 202.94,192.65 205.45,194.56 207.96,195.20"/>
        <lane id=":n1_4_1" index="1" speed="11.15" length="18.45" shape="195.01,186.44 198.06,191.68 201.24,195.41 204.53,197.65 207.96,198.40"/>
    </edge>
    <edge id=":n1_6" function="internal">
        <lane id=":n1_6_0" index="0" speed="8.81" length="23.62" shape="195.01,186.44 197.27,193.08 196.46,197.81 192.58,200.65 185.64,201.60"/>
    </edge>
    <edge id=":n1_7" function="internal">
        <lane id=":n1_7_0" index="0" speed="3.65" length="2.34" shape="195.01,186.44 194.83,187.88 194.30,188.59"/>
    </edge>
    <edge id=":n1_14" function="internal">
        <lane id=":n1_14_0" index="0" speed="3.65" length="2.34" shape="194.30,188.59 193.40,188.59 192.15,187.88"/>
    </edge>
    <edge id=":n1_8" function="internal">
        <lane id=":n1_8_0" index="0" speed="5.74" length="9.18" shape="185.64,195.20 188.34,194.83 189.85,193.73 190.16,191.89 189.29,189.31"/>
    </edge>
    <edge id=":n1_9" function="internal">
        <lane id=":n1_9_0" index="0" speed="40.00" length="22.31" shape="185.64,195.20 207.96,195.20"/>
        <lane id=":n1_9_1" index="1" speed="40.00" length="22.31" shape="185.64,198.40 207.96,198.40"/>
    </edge>
    <edge id=":n1_11" function="internal">
        <lane id=":n1_11_0" index="0" speed="3.65" length="1.44" shape="185.64,198.40 186.84,199.20"/>
    </edge>
    <edge id=":n1_15" function="internal">
        <lane id=":n1_15_0" index="0" speed="3.65" length="3.23" shape="186.84,199.20 187.24,200.00 186.84,200.80 185.64,201.60"/>
    </edge>
    <edge id=":n2_0" function="internal">
        <lane id=":n2_0_0" index="0" speed="10.00" length="22.31" shape="614.36,204.80 592.04,204.80"/>
        <lane id=":n2_0_1" index="1" speed="10.00" length="22.31" shape="614.36,201.60 592.04,201.60"/>
    </edge>
    <edge id=":n2_2" function="internal">
        <lane id=":n2_2_0" index="0" speed="8.81" length="5.24" shape="614.36,201.60 609.17,200.89"/>
    </edge>
    <edge id=":n2_3" function="internal">
        <lane id=":n2_3_0" index="0" speed="3.65" length="1.44" shape="614.36,201.60 613.16,200.80"/>
    </edge>
    <edge id=":n2_11" function="internal">
        <lane id=":n2_11_0" index="0" speed="8.81" length="18.38" shape="609.17,200.89 607.42,200.65 603.54,197.81 602.73,193.08 604.99,186.44"/>
    </edge>
    <edge id=":n2_12" function="internal">
        <lane id=":n2_12_0" index="0" speed="3.65" length="3.23" shape="613.16,200.80 612.76,200.00 613.16,199.20 614.36,198.40"/>
    </edge>
    <edge id=":n2_4" function="internal">
        <lane id=":n2_4_0" index="0" speed="5.74" length="9.18" shape="610.71,189.31 609.84,191.89 610.15,193.73 611.66,194.83 614.36,195.20"/>
    </edge>
    <edge id=":n2_5" function="internal">
        <lane id=":n2_5_0" index="0" speed="10.00" length="21.98" shape="607.85,187.88 604.29,193.88 600.47,198.17 596.39,200.74 592.04,201.60"/>
    </edge>
    <edge id=":n2_6" function="internal">
        <lane id=":n2_6_0" index="0" speed="3.65" length="2.34" shape="607.85,187.88 606.60,188.59 605.70,188.59"/>
    </edge>
    <edge id=":n2_13" function="internal">
        <lane id=":n2_13_0" index="0" speed="3.65" length="2.34" shape="605.70,188.59 605.17,187.88 604.99,186.44"/>
    </edge>
    <edge id=":n2_7" function="internal">
        <lane id=":n2_7_0" index="0" speed="10.08" length="14.93" shape="592.04,195.20 594.55,194.56 597.06,192.65 599.59,189.47 602.13,185.01"/>
    </edge>
    <edge id=":n2_8" function="internal">
        <lane id=":n2_8_0" index="0" speed="40.00" length="22.31" shape="592.04,195.20 614.36,195.20"/>
        <lane id=":n2_8_1" index="1" speed="40.00" length="22.31" shape="592.04,198.40 614.36,198.40"/>
    </edge>
    <edge id=":n2_10" function="internal">
        <lane id=":n2_10_0" index="0" speed="3.65" length="1.44" shape="592.04,198.40 593.24,199.20"/>
    </edge>
    <edge id=":n2_14" function="internal">
        <lane id=":n2_14_0" index="0" speed="3.65" length="3.23" shape="593.24,199.20 593.64,200.00 593.24,200.80 592.04,201.60"/>
    </edge>
    <edge id=":n3_0" function="internal">
        <lane id=":n3_0_0" index="0" speed="9.10" length="25.26" shape="799.66,188.59 802.08,195.68 801.21,200.75 797.07,203.79 789.64,204.80"/>
        <lane id=":n3_0_1" index="1" speed="7.77" length="18.04" shape="796.80,190.02 798.52,195.09 797.91,198.71 794.95,200.88 789.64,201.60"/>
    </edge>
    <edge id=":n3_2" function="internal">
        <lane id=":n3_2_0" index="0" speed="3.95" length="3.61" shape="789.64,195.20 790.70,195.06 791.30,194.62 791.42,193.90 791.08,192.88"/>
        <lane id=":n3_2_1" index="1" speed="6.16" length="10.83" shape="789.64,198.40 792.83,197.97 794.60,196.66 794.97,194.49 793.94,191.45"/>
    </edge>
    <edge id=":n4_0" function="internal">
        <lane id=":n4_0_0" index="0" speed="5.56" length="9.40" shape="103.22,17.17 101.61,14.76 100.00,13.95 98.39,14.76 96.78,17.17"/>
    </edge>
    <edge id=":n4_1" function="internal">
        <lane id=":n4_1_0" index="0" speed="9.12" length="25.36" shape="106.08,15.74 103.35,8.15 103.81,2.74 107.48,-0.52 114.36,-1.60"/>
    </edge>
    <edge id=":n4_2" function="internal">
        <lane id=":n4_2_0" index="0" speed="3.65" length="2.34" shape="106.08,15.74 106.26,14.31 106.80,13.60"/>
    </edge>
    <edge id=":n4_11" function="internal">
        <lane id=":n4_11_0" index="0" speed="3.65" length="2.34" shape="106.80,13.60 107.69,13.60 108.94,14.31"/>
    </edge>
    <edge id=":n4_3" function="internal">
        <lane id=":n4_3_0" index="0" speed="6.20" length="10.99" shape="114.36,4.80 111.73,5.30 110.42,6.82 110.45,9.34 111.81,12.88"/>
    </edge>
    <edge id=":n4_4" function="internal">
        <lane id=":n4_4_0" index="0" speed="12.33" length="22.70" shape="114.36,4.80 108.99,5.57 104.27,7.89 100.20,11.76 96.78,17.17"/>
        <lane id=":n4_4_1" index="1" speed="13.24" length="26.25" shape="114.36,1.60 108.07,2.48 102.56,5.14 97.85,9.55 93.92,15.74"/>
    </edge>
    <edge id=":n4_6" function="internal">
        <lane id=":n4_6_0" index="0" speed="3.65" length="1.31" shape="114.36,1.60 113.27,0.87"/>
    </edge>
    <edge id=":n4_12" function="internal">
        <lane id=":n4_12_0" index="0" speed="3.65" length="3.37" shape="113.27,0.87 113.16,0.80 112.76,0.00 113.16,-0.80 114.36,-1.60"/>
    </edge>
    <edge id=":n4_7" function="internal">
        <lane id=":n4_7_0" index="0" speed="10.00" length="33.36" shape="88.19,12.88 93.14,5.14 99.15,-0.38 106.22,-3.70 114.36,-4.80"/>
        <lane id=":n4_7_1" index="1" speed="10.00" length="29.81" shape="91.06,14.31 95.50,7.35 100.86,2.38 107.15,-0.61 114.36,-1.60"/>
    </edge>
    <edge id=":n4_9" function="internal">
        <lane id=":n4_9_0" index="0" speed="8.35" length="6.04" shape="91.06,14.31 94.85,9.62"/>
    </edge>
    <edge id=":n4_10" function="internal">
        <lane id=":n4_10_0" index="0" speed="3.65" length="1.44" shape="91.06,14.31 92.31,13.60"/>
    </edge>
    <edge id=":n4_13" function="internal">
        <lane id=":n4_13_0" index="0" speed="8.35" length="17.18" shape="94.85,9.62 95.10,9.31 100.00,7.64 104.90,9.31 108.94,14.31"/>
    </edge>
    <edge id=":n4_14" function="internal">
        <lane id=":n4_14_0" index="0" speed="3.65" length="3.23" shape="92.31,13.60 93.20,13.60 93.74,14.31 93.92,15.74"/>
    </edge>
    <edge id=":n5_0" function="internal">
        <lane id=":n5_0_0" index="0" speed="5.56" length="9.40" shape="703.22,17.17 701.61,14.76 700.00,13.95 698.39,14.76 696.78,17.17"/>
    </edge>
    <edge id=":n5_1" function="internal">
        <lane id=":n5_1_0" index="0" speed="12.33" length="22.70" shape="703.22,17.17 699.80,11.76 695.73,7.89 691.01,5.57 685.64,4.80"/>
        <lane id=":n5_1_1" index="1" speed="13.24" length="26.25" shape="706.08,15.74 702.15,9.55 697.44,5.14 691.93,2.48 685.64,1.60"/>
    </edge>
    <edge id=":n5_3" function="internal">
        <lane id=":n5_3_0" index="0" speed="3.65" length="1.33" shape="706.08,15.74 706.25,14.42"/>
    </edge>
    <edge id=":n5_12" function="internal">
        <lane id=":n5_12_0" index="0" speed="3.65" length="3.34" shape="706.25,14.42 706.26,14.31 706.80,13.60 707.69,13.60 708.94,14.31"/>
    </edge>
    <edge id=":n5_4" function="internal">
        <lane id=":n5_4_0" index="0" speed="14.88" length="33.36" shape="685.64,-4.80 693.78,-3.70 700.85,-0.38 706.86,5.14 711.81,12.88"/>
        <lane id=":n5_4_1" index="1" speed="14.08" length="29.81" shape="685.64,-1.60 692.85,-0.61 699.14,2.38 704.50,7.35 708.94,14.31"/>
    </edge>
    <edge id=":n5_6" function="internal">
        <lane id=":n5_6_0" index="0" speed="9.12" length="8.22" shape="685.64,-1.60 692.52,-0.52 693.46,0.32"/>
    </edge>
    <edge id=":n5_7" function="internal">
        <lane id=":n5_7_0" index="0" speed="3.65" length="1.44" shape="685.64,-1.60 686.84,-0.80"/>
    </edge>
    <edge id=":n5_13" function="internal">
        <lane id=":n5_13_0" index="0" speed="9.12" length="17.14" shape="693.46,0.32 696.19,2.74 696.65,8.15 693.92,15.74"/>
    </edge>
    <edge id=":n5_14" function="internal">
        <lane id=":n5_14_0" index="0" speed="3.65" length="3.23" shape="686.84,-0.80 687.24,0.00 686.84,0.80 685.64,1.60"/>
    </edge>
    <edge id=":n5_8" function="internal">
        <lane id=":n5_8_0" index="0" speed="6.20" length="10.99" shape="688.19,12.88 689.55,9.34 689.58,6.82 688.27,5.30 685.64,4.80"/>
        <lane id=":n5_8_1" index="1" speed="7.79" length="18.16" shape="691.06,14.31 693.10,8.75 692.88,4.78 690.40,2.39 685.64,1.60"/>
    </edge>
    <edge id=":n5_10" function="internal">
        <lane id=":n5_10_0" index="0" speed="8.35" length="23.21" shape="691.06,14.31 695.10,9.31 700.00,7.64 704.90,9.31 708.94,14.31"/>
    </edge>
    <edge id=":n5_11" function="internal">
        <lane id=":n5_11_0" index="0" speed="3.65" length="2.34" shape="691.06,14.31 692.31,13.60 693.20,13.60"/>
    </edge>
    <edge id=":n5_15" function="internal">
        <lane id=":n5_15_0" index="0" speed="3.65" length="2.34" shape="693.20,13.60 693.74,14.31 693.92,15.74"/>
    </edge>

    <edge id="D04" from="n0" to="n4" priority="75" type="2L10">
        <lane id="D04_0" index="0" speed="10.00" length="196.45" shape="0.34,188.59 88.19,12.88"/>
        <lane id="D04_1" index="1" speed="10.00" length="196.45" shape="3.20,190.02 91.06,14.31"/>
    </edge>
    <edge id="D14" from="n1" to="n4" priority="75" type="2L10">
        <lane id="D14_0" index="0" speed="10.00" length="192.45" shape="189.29,189.31 103.22,17.17"/>
        <lane id="D14_1" index="1" speed="10.00" length="192.45" shape="192.15,187.88 106.08,15.74"/>
    </edge>
    <edge id="D25" from="n2" to="n5" priority="75" type="2L10">
        <lane id="D25_0" index="0" speed="10.00" length="192.45" shape="602.13,185.01 688.19,12.88"/>
        <lane id="D25_1" index="1" speed="10.00" length="192.45" shape="604.99,186.44 691.06,14.31"/>
    </edge>
    <edge id="D35" from="n3" to="n5" priority="75" type="2L40">
        <lane id="D35_0" index="0" speed="40.00" length="196.45" shape="791.08,192.88 703.22,17.17"/>
        <lane id="D35_1" index="1" speed="40.00" length="196.45" shape="793.94,191.45 706.08,15.74"/>
    </edge>
    <edge id="L01" from="n1" to="n0" priority="75" type="2L10">
        <lane id="L01_0" index="0" speed="10.00" length="175.29" shape="185.64,204.80 10.36,204.80"/>
        <lane id="L01_1" index="1" speed="10.00" length="175.29" shape="185.64,201.60 10.36,201.60"/>
    </edge>
    <edge id="L12" from="n2" to="n1" priority="75" type="2L10">
        <lane id="L12_0" index="0" speed="10.00" length="384.09" shape="592.04,204.80 207.96,204.80"/>
        <lane id="L12_1" index="1" speed="10.00" length="384.09" shape="592.04,201.60 207.96,201.60"/>
    </edge>
    <edge id="L23" from="n3" to="n2" priority="75" type="2L10">
        <lane id="L23_0" index="0" speed="10.00" length="175.29" shape="789.64,204.80 614.36,204.80"/>
        <lane id="L23_1" index="1" speed="10.00" length="175.29" shape="789.64,201.60 614.36,201.60"/>
    </edge>
    <edge id="L45" from="n5" to="n4" priority="75" type="2L40">
        <lane id="L45_0" index="0" speed="40.00" length="571.29" shape="685.64,4.80 114.36,4.80"/>
        <lane id="L45_1" index="1" speed="40.00" length="571.29" shape="685.64,1.60 114.36,1.60"/>
    </edge>
    <edge id="R01" from="n0" to="n1" priority="75" type="2L40">
        <lane id="R01_0" index="0" speed="40.00" length="175.29" shape="10.36,195.20 185.64,195.20"/>
        <lane id="R01_1" index="1" speed="40.00" length="175.29" shape="10.36,198.40 185.64,198.40"/>
    </edge>
    <edge id="R12" from="n1" to="n2" priority="75" type="2L40">
        <lane id="R12_0" index="0" speed="40.00" length="384.09" shape="207.96,195.20 592.04,195.20"/>
        <lane id="R12_1" index="1" speed="40.00" length="384.09" shape="207.96,198.40 592.04,198.40"/>
    </edge>
    <edge id="R23" from="n2" to="n3" priority="75" type="2L40">
        <lane id="R23_0" index="0" speed="40.00" length="175.29" shape="614.36,195.20 789.64,195.20"/>
        <lane id="R23_1" index="1" speed="40.00" length="175.29" shape="614.36,198.40 789.64,198.40"/>
    </edge>
    <edge id="R45" from="n4" to="n5" priority="75" type="2L10">
        <lane id="R45_0" index="0" speed="10.00" length="571.29" shape="114.36,-4.80 685.64,-4.80"/>
        <lane id="R45_1" index="1" speed="10.00" length="571.29" shape="114.36,-1.60 685.64,-1.60"/>
    </edge>
    <edge id="U04" from="n4" to="n0" priority="75" type="2L40">
        <lane id="U04_0" index="0" speed="40.00" length="196.45" shape="96.78,17.17 8.92,192.88"/>
        <lane id="U04_1" index="1" speed="40.00" length="196.45" shape="93.92,15.74 6.06,191.45"/>
    </edge>
    <edge id="U14" from="n4" to="n1" priority="75" type="2L10">
        <lane id="U14_0" index="0" speed="10.00" length="192.45" shape="111.81,12.88 197.87,185.01"/>
        <lane id="U14_1" index="1" speed="10.00" length="192.45" shape="108.94,14.31 195.01,186.44"/>
    </edge>
    <edge id="U25" from="n5" to="n2" priority="75" type="2L10">
        <lane id="U25_0" index="0" speed="10.00" length="192.45" shape="696.78,17.17 610.71,189.31"/>
        <lane id="U25_1" index="1" speed="10.00" length="192.45" shape="693.92,15.74 607.85,187.88"/>
    </edge>
    <edge id="U35" from="n5" to="n3" priority="75" type="2L40">
        <lane id="U35_0" index="0" speed="40.00" length="196.45" shape="711.81,12.88 799.66,188.59"/>
        <lane id="U35_1" index="1" speed="40.00" length="196.45" shape="708.94,14.31 796.80,190.02"/>
    </edge>

    <tlLogic id="n1" type="static" programID="0" offset="0">
        <phase duration="37" state="GGggrrrrGGGg"/>
        <phase duration="8"  state="yyyyrrrryyyy"/>
        <phase duration="37" state="rrrrGGGgGrrr"/>
        <phase duration="8"  state="rrrryyyyyrrr"/>
    </tlLogic>
    <tlLogic id="n2" type="static" programID="0" offset="0">
        <phase duration="37" state="GGggrrrGGGg"/>
        <phase duration="8"  state="yyyyrrryyyy"/>
        <phase duration="37" state="rrrrGGgGrrr"/>
        <phase duration="8"  state="rrrryyyyrrr"/>
    </tlLogic>
    <tlLogic id="n4" type="static" programID="0" offset="0">
        <phase duration="37" state="rrrGGGgGGgg"/>
        <phase duration="8"  state="rrryyyyyyyy"/>
        <phase duration="37" state="GGgGrrrrrrr"/>
        <phase duration="8"  state="yyyyrrrrrrr"/>
    </tlLogic>
    <tlLogic id="n5" type="static" programID="0" offset="0">
        <phase duration="37" state="GGGgGGggrrrr"/>
        <phase duration="8"  state="yyyyyyyyrrrr"/>
        <phase duration="37" state="GrrrrrrrGGGg"/>
        <phase duration="8"  state="yrrrrrrryyyy"/>
    </tlLogic>

    <junction id="n0" type="priority" x="0.00" y="200.00" incLanes="L01_0 L01_1 U04_0 U04_1" intLanes=":n0_0_0 :n0_0_1 :n0_2_0 :n0_2_1" shape="10.36,206.40 10.36,193.60 -1.09,187.88 -3.35,193.54 -3.94,198.17 -2.86,201.77 -0.12,204.34 4.28,205.89">
        <request index="0" response="0000" foes="0000" cont="0"/>
        <request index="1" response="0000" foes="0000" cont="0"/>
        <request index="2" response="0000" foes="0000" cont="0"/>
        <request index="3" response="0000" foes="0000" cont="0"/>
    </junction>
    <junction id="n1" type="traffic_light" x="200.00" y="200.00" incLanes="L12_0 L12_1 U14_0 U14_1 R01_0 R01_1" intLanes=":n1_0_0 :n1_0_1 :n1_12_0 :n1_13_0 :n1_4_0 :n1_4_1 :n1_6_0 :n1_14_0 :n1_8_0 :n1_9_0 :n1_9_1 :n1_15_0" shape="207.96,206.40 207.96,193.60 205.22,192.57 203.79,191.27 202.33,189.47 200.84,187.14 199.30,184.30 187.86,190.02 188.41,192.01 188.20,192.71 187.67,193.20 186.82,193.50 185.64,193.60 185.64,206.40">
        <request index="0"  response="000000000000" foes="100001000000" cont="0"/>
        <request index="1"  response="000000000000" foes="100001000000" cont="0"/>
        <request index="2"  response="011000000000" foes="011011000000" cont="1"/>
        <request index="3"  response="011000110000" foes="011000110000" cont="1"/>
        <request index="4"  response="011000000000" foes="011000001000" cont="0"/>
        <request index="5"  response="011000000000" foes="011000001000" cont="0"/>
        <request index="6"  response="011000000111" foes="111000000111" cont="0"/>
        <request index="7"  response="000000000100" foes="000000000100" cont="1"/>
        <request index="8"  response="000000000000" foes="000000000000" cont="0"/>
        <request index="9"  response="000000000000" foes="000001111100" cont="0"/>
        <request index="10" response="000000000000" foes="000001111100" cont="0"/>
        <request index="11" response="000001000011" foes="000001000011" cont="1"/>
    </junction>
    <junction id="n2" type="traffic_light" x="600.00" y="200.00" incLanes="L23_0 L23_1 U25_0 U25_1 R12_0 R12_1" intLanes=":n2_0_0 :n2_0_1 :n2_11_0 :n2_12_0 :n2_4_0 :n2_5_0 :n2_13_0 :n2_7_0 :n2_8_0 :n2_8_1 :n2_14_0" shape="614.36,206.40 614.36,193.60 612.33,193.20 611.80,192.71 611.59,192.01 611.71,191.12 612.14,190.02 600.70,184.30 599.16,187.14 597.67,189.47 596.21,191.27 594.78,192.57 593.40,193.34 592.04,193.60 592.04,206.40">
        <request index="0"  response="00000000000" foes="10000100000" cont="0"/>
        <request index="1"  response="00000000000" foes="10000100000" cont="0"/>
        <request index="2"  response="01100000000" foes="01101100000" cont="1"/>
        <request index="3"  response="01100000000" foes="01100000000" cont="1"/>
        <request index="4"  response="01100000000" foes="01100000000" cont="0"/>
        <request index="5"  response="01100000111" foes="11100000111" cont="0"/>
        <request index="6"  response="00000000100" foes="00000000100" cont="1"/>
        <request index="7"  response="00000000000" foes="00000000000" cont="0"/>
        <request index="8"  response="00000000000" foes="00000111100" cont="0"/>
        <request index="9"  response="00000000000" foes="00000111100" cont="0"/>
        <request index="10" response="00000100011" foes="00000100011" cont="1"/>
    </junction>
    <junction id="n3" type="priority" x="800.00" y="200.00" incLanes="U35_0 U35_1 R23_0 R23_1" intLanes=":n3_0_0 :n3_0_1 :n3_2_0 :n3_2_1" shape="801.09,187.88 789.64,193.60 789.64,206.40 795.72,205.89 800.12,204.34 802.86,201.77 803.94,198.17 803.35,193.54">
        <request index="0" response="0000" foes="0000" cont="0"/>
        <request index="1" response="0000" foes="0000" cont="0"/>
        <request index="2" response="0000" foes="0000" cont="0"/>
        <request index="3" response="0000" foes="0000" cont="0"/>
    </junction>
    <junction id="n4" type="traffic_light" x="100.00" y="0.00" incLanes="D14_0 D14_1 L45_0 L45_1 D04_0 D04_1" intLanes=":n4_0_0 :n4_1_0 :n4_11_0 :n4_3_0 :n4_4_0 :n4_4_1 :n4_12_0 :n4_7_0 :n4_7_1 :n4_13_0 :n4_14_0" shape="101.79,17.89 113.24,12.16 112.08,8.96 112.08,7.84 112.45,7.04 113.21,6.56 114.36,6.40 114.36,-6.40 108.50,-5.88 103.15,-4.34 98.30,-1.76 93.95,1.85 90.11,6.49 86.76,12.16 98.21,17.89 99.40,16.30 100.00,16.10 100.60,16.30 101.19,16.89">
        <request index="0"  response="00000110000" foes="00000110000" cont="0"/>
        <request index="1"  response="01110110000" foes="01111110000" cont="0"/>
        <request index="2"  response="01000000000" foes="01000000000" cont="1"/>
        <request index="3"  response="00000000000" foes="00000000000" cont="0"/>
        <request index="4"  response="00000000000" foes="11000000011" cont="0"/>
        <request index="5"  response="00000000000" foes="11000000011" cont="0"/>
        <request index="6"  response="00110000010" foes="00110000010" cont="1"/>
        <request index="7"  response="00000000000" foes="00001000010" cont="0"/>
        <request index="8"  response="00000000000" foes="00001000010" cont="0"/>
        <request index="9"  response="00000110000" foes="00000110110" cont="1"/>
        <request index="10" response="00000110000" foes="00000110000" cont="1"/>
    </junction>
    <junction id="n5" type="traffic_light" x="700.00" y="0.00" incLanes="D35_0 D35_1 R45_0 R45_1 D25_0 D25_1" intLanes=":n5_0_0 :n5_1_0 :n5_1_1 :n5_12_0 :n5_4_0 :n5_4_1 :n5_13_0 :n5_14_0 :n5_8_0 :n5_8_1 :n5_10_0 :n5_15_0" shape="701.79,17.89 713.24,12.16 709.89,6.49 706.05,1.85 701.70,-1.76 696.85,-4.34 691.50,-5.88 685.64,-6.40 685.64,6.40 687.55,7.04 687.92,7.84 687.92,8.96 687.53,10.40 686.76,12.16 698.21,17.89 699.40,16.30 700.00,16.10 700.60,16.30 701.19,16.89">
        <request index="0"  response="000000000000" foes="000000000000" cont="0"/>
        <request index="1"  response="000000000000" foes="011111000000" cont="0"/>
        <request index="2"  response="000000000000" foes="011111000000" cont="0"/>
        <request index="3"  response="010000110000" foes="010000110000" cont="1"/>
        <request index="4"  response="000000000000" foes="010000001000" cont="0"/>
        <request index="5"  response="000000000000" foes="010000001000" cont="0"/>
        <request index="6"  response="000000000110" foes="110000000110" cont="1"/>
        <request index="7"  response="001100000110" foes="001100000110" cont="1"/>
        <request index="8"  response="000000000110" foes="000010000110" cont="0"/>
        <request index="9"  response="000000000110" foes="000010000110" cont="0"/>
        <request index="10" response="000001110110" foes="000001111110" cont="0"/>
        <request index="11" response="000001000000" foes="000001000000" cont="1"/>
    </junction>

    <junction id=":n1_12_0" type="internal" x="204.33" y="200.88" incLanes=":n1_2_0 R01_0 R01_1" intLanes=":n1_6_0 :n1_7_0 :n1_8_0 :n1_9_0 :n1_9_1"/>
    <junction id=":n1_13_0" type="internal" x="206.76" y="200.80" incLanes=":n1_3_0 R01_0 R01_1 U14_0 U14_1" intLanes=":n1_4_0 :n1_4_1 :n1_9_0 :n1_9_1"/>
    <junction id=":n1_14_0" type="internal" x="194.30" y="188.59" incLanes=":n1_7_0 L12_1 R01_0" intLanes=":n1_2_0 :n1_8_0"/>
    <junction id=":n1_15_0" type="internal" x="186.84" y="199.20" incLanes=":n1_11_0 L12_0 L12_1 U14_1" intLanes=":n1_0_0 :n1_0_1 :n1_6_0"/>
    <junction id=":n2_11_0" type="internal" x="609.17" y="200.89" incLanes=":n2_2_0 R12_0 R12_1" intLanes=":n2_5_0 :n2_6_0 :n2_7_0 :n2_8_0 :n2_8_1"/>
    <junction id=":n2_12_0" type="internal" x="613.16" y="200.80" incLanes=":n2_3_0 R12_0 R12_1 U25_0" intLanes=":n2_4_0 :n2_8_0 :n2_8_1"/>
    <junction id=":n2_13_0" type="internal" x="605.70" y="188.59" incLanes=":n2_6_0 L23_1 R12_0" intLanes=":n2_2_0 :n2_7_0"/>
    <junction id=":n2_14_0" type="internal" x="593.24" y="199.20" incLanes=":n2_10_0 L23_0 L23_1 U25_1" intLanes=":n2_0_0 :n2_0_1 :n2_5_0"/>
    <junction id=":n4_11_0" type="internal" x="106.80" y="13.60" incLanes=":n4_2_0 D04_1 L45_0" intLanes=":n4_3_0 :n4_9_0"/>
    <junction id=":n4_12_0" type="internal" x="113.27" y="0.87" incLanes=":n4_6_0 D04_0 D04_1 D14_1" intLanes=":n4_1_0 :n4_7_0 :n4_7_1"/>
    <junction id=":n4_13_0" type="internal" x="94.85" y="9.62" incLanes=":n4_9_0 L45_0 L45_1" intLanes=":n4_1_0 :n4_2_0 :n4_3_0 :n4_4_0 :n4_4_1"/>
    <junction id=":n4_14_0" type="internal" x="92.31" y="13.60" incLanes=":n4_10_0 D14_0 L45_0 L45_1" intLanes=":n4_0_0 :n4_4_0 :n4_4_1"/>
    <junction id=":n5_12_0" type="internal" x="706.25" y="14.42" incLanes=":n5_3_0 D25_1 R45_0 R45_1" intLanes=":n5_4_0 :n5_4_1 :n5_10_0"/>
    <junction id=":n5_13_0" type="internal" x="693.46" y="0.32" incLanes=":n5_6_0 D35_0 D35_1" intLanes=":n5_0_0 :n5_1_0 :n5_1_1 :n5_10_0 :n5_11_0"/>
    <junction id=":n5_14_0" type="internal" x="686.84" y="-0.80" incLanes=":n5_7_0 D25_0 D25_1 D35_0 D35_1" intLanes=":n5_1_0 :n5_1_1 :n5_8_0 :n5_8_1"/>
    <junction id=":n5_15_0" type="internal" x="693.20" y="13.60" incLanes=":n5_11_0 D35_0 R45_1" intLanes=":n5_0_0 :n5_6_0"/>

    <connection from="D04" to="R45" fromLane="0" toLane="0" via=":n4_7_0" tl="n4" linkIndex="7" dir="L" state="O"/>
    <connection from="D04" to="R45" fromLane="1" toLane="1" via=":n4_7_1" tl="n4" linkIndex="8" dir="L" state="O"/>
    <connection from="D04" to="U14" fromLane="1" toLane="1" via=":n4_9_0" tl="n4" linkIndex="9" dir="l" state="o"/>
    <connection from="D04" to="U04" fromLane="1" toLane="1" via=":n4_10_0" tl="n4" linkIndex="10" dir="t" state="o"/>
    <connection from="D14" to="U04" fromLane="0" toLane="0" via=":n4_0_0" tl="n4" linkIndex="0" dir="r" state="o"/>
    <connection from="D14" to="R45" fromLane="1" toLane="1" via=":n4_1_0" tl="n4" linkIndex="1" dir="l" state="o"/>
    <connection from="D14" to="U14" fromLane="1" toLane="1" via=":n4_2_0" tl="n4" linkIndex="2" dir="t" state="o"/>
    <connection from="D25" to="L45" fromLane="0" toLane="0" via=":n5_8_0" tl="n5" linkIndex="8" dir="r" state="o"/>
    <connection from="D25" to="L45" fromLane="1" toLane="1" via=":n5_8_1" tl="n5" linkIndex="9" dir="r" state="o"/>
    <connection from="D25" to="U35" fromLane="1" toLane="1" via=":n5_10_0" tl="n5" linkIndex="10" dir="l" state="o"/>
    <connection from="D25" to="U25" fromLane="1" toLane="1" via=":n5_11_0" tl="n5" linkIndex="11" dir="t" state="o"/>
    <connection from="D35" to="U25" fromLane="0" toLane="0" via=":n5_0_0" tl="n5" linkIndex="0" dir="r" state="O"/>
    <connection from="D35" to="L45" fromLane="0" toLane="0" via=":n5_1_0" tl="n5" linkIndex="1" dir="R" state="O"/>
    <connection from="D35" to="L45" fromLane="1" toLane="1" via=":n5_1_1" tl="n5" linkIndex="2" dir="R" state="O"/>
    <connection from="D35" to="U35" fromLane="1" toLane="1" via=":n5_3_0" tl="n5" linkIndex="3" dir="t" state="o"/>
    <connection from="L01" to="D04" fromLane="0" toLane="0" via=":n0_0_0" dir="l" state="M"/>
    <connection from="L01" to="D04" fromLane="1" toLane="1" via=":n0_0_1" dir="l" state="M"/>
    <connection from="L12" to="L01" fromLane="0" toLane="0" via=":n1_0_0" tl="n1" linkIndex="0" dir="s" state="O"/>
    <connection from="L12" to="L01" fromLane="1" toLane="1" via=":n1_0_1" tl="n1" linkIndex="1" dir="s" state="O"/>